40

C          8.11108        1.44696        1.57521
C          7.80038        1.41968        2.94514
C          7.24046        1.25507        0.45845
C          5.83600        0.98714        0.44457
C          4.99396        0.85238        1.54730
C          5.32570        0.94820        2.94811
C          6.55242        1.19618        3.55882
C          4.14439        0.73979        3.65620
C          3.11748        0.52417        2.76929
C          3.62132        0.58944        1.47917
H          4.01238        0.73961        4.72948
H          7.71706        1.32283       -0.53139
H          5.33438        0.86922       -0.51741
H          9.17584        1.64498        1.36748
H          8.64517        1.59634        3.61945
H          6.52519        1.21623        4.64014
C          7.84653        1.62768       11.49568
C          8.35981        1.69531       10.20096
C          6.46517        1.36970       11.71820
C          5.56978        1.17345       10.61638
C          6.15570        1.25482        9.31793
C          7.51486        1.50920        9.12237
C          4.04326        0.88598       10.76039
C          3.35469        0.78396       12.01237
C          1.95777        0.51882       12.05480
C          3.24081        0.70591        9.59341
C          1.22715        0.35223       10.87891
C          1.86981        0.44623        9.65826
H          8.53449        1.77801       12.32240
H          6.12721        1.32920       12.74352
H          9.41562        1.89235       10.02483
H          7.91262        1.56151        8.11487
H          5.59073        1.12634        8.42304
H          3.86620        0.90340       12.95615
H          3.64003        0.75897        8.60598
H          1.30231        0.31679        8.74307
H          1.42591        0.43947       12.99802
H          0.15818        0.14921       10.90590
H          3.03179        0.45599        0.57891
H          2.09421        0.33731        3.07215
