39

S          4.11581        0.19851        6.07036
O          5.31531       -0.69999        6.90694
O          3.52175       -1.04389        7.09485
O          5.10311       -0.34073        5.02488
O          3.20762       -0.70460        5.22294
S         15.24335        1.22331        9.51064
S         14.68427        0.33536       11.36922
S          7.99450       -0.45261       15.04872
C         16.30840       -0.17245        9.03990
H         17.10863       -0.31827        9.79504
H         16.79693        0.07041        8.07409
H         15.70431       -1.09214        8.89816
C         13.15102       -0.37049       10.69488
H         12.60982       -0.88167       11.51726
H         13.38056       -1.12440        9.91396
H         12.49381        0.43572       10.30775
C          9.79865       -0.61642       15.15999
H         10.27911       -0.11959       14.29187
H         10.07878       -1.68829       15.22263
H         10.14474       -0.11330       16.08620
H          7.93824       -1.18782       13.84953
S          2.14916       -0.14666       11.80530
C          3.95147        0.02298       11.99229
C          1.75961        1.08114       13.09105
H          4.44324       -0.66396       11.27343
H          4.26531       -0.27345       13.01493
H          4.27102        1.05719       11.74689
H          0.65640        1.16190       13.17451
H          2.15285        2.07922       12.80615
H          2.15111        0.74981       14.07541
C         -4.07487        0.88629        2.31335
C         -4.53901        0.98980        1.00029
C         -2.65647        0.85068        2.41283
C         -2.00922        0.92630        1.17762
H         -4.73111        0.83787        3.17199
H         -2.12961        0.77257        3.35435
S         -3.19779        1.03270        0.02704
H         -5.57250        1.03319        0.68458
H         -0.94094        0.91694        1.00927
