42

C         13.55703       -0.94505        7.43571
H         14.59791       -0.86513        7.06056
H         12.93861       -0.14086        6.98657
Cl        13.54908       -0.77922        9.20600
H         13.13819       -1.93339        7.15557
C          8.50285       -1.01091        8.65089
Cl         9.96554       -1.52953        7.78495
H          7.91652       -1.90375        8.94909
H          7.88825       -0.36909        7.98766
Cl         8.96493       -0.09111       10.10041
C          3.82669       -1.23096       10.25083
Cl         5.44047       -1.74147       10.79373
Cl         3.60548        0.49866       10.59724
H          3.05416       -1.81796       10.78896
Cl         3.67328       -1.50875        8.50114
C         12.00458       -0.49425        1.86305
H         13.08681       -0.64573        1.67188
H         11.56114       -1.43664        2.24509
H         11.49918       -0.20447        0.91879
Br        11.77089        0.90512        3.17688
C          6.47734       -0.46628        3.08735
Br         8.16256       -0.81621        2.20784
H          5.80045       -1.33371        2.94579
H          6.01222        0.44058        2.64908
Br         6.78350       -0.18698        4.97599
C          0.95705       -0.66954        4.59541
Br         2.87453       -0.91105        4.59049
Br         0.36317       -0.20615        2.81426
Br         0.49085        0.74959        5.82297
H          0.46671       -1.61151        4.91643
C          2.13104        0.21953       -2.68787
C          0.74573        0.22840       -2.49145
C          2.65438        0.33546       -3.98126
C          1.79220        0.46011       -5.07693
C          0.40674        0.46886       -4.87940
C         -0.11696        0.35298       -3.58631
H          3.72597        0.32862       -4.13328
I          3.42922        0.03151       -1.03519
Cl         2.44807        0.60536       -6.69762
H         -0.26074        0.56523       -5.72631
Br        -2.00748        0.36491       -3.31673
H          0.34109        0.13876       -1.49135
